Version 4
SHEET 1 1584 728
WIRE -96 -192 -112 -192
WIRE 48 -192 32 -192
WIRE -96 -176 -96 -192
WIRE 48 -176 48 -192
WIRE -96 -80 -96 -96
WIRE 48 -80 48 -96
WIRE 160 128 160 112
WIRE 128 144 -160 144
WIRE 336 160 192 160
WIRE 352 160 336 160
WIRE 448 160 432 160
WIRE 480 160 448 160
WIRE 592 160 560 160
WIRE 128 176 96 176
WIRE 336 176 336 160
WIRE 160 208 160 192
WIRE 96 272 96 176
WIRE 336 272 336 256
WIRE 336 272 96 272
WIRE 336 288 336 272
WIRE -160 304 -160 144
WIRE 528 304 528 288
WIRE 448 320 448 160
WIRE 496 320 448 320
WIRE 592 336 592 160
WIRE 592 336 560 336
WIRE 640 336 592 336
WIRE 496 352 448 352
WIRE 336 384 336 368
WIRE 336 384 96 384
WIRE 528 384 528 368
WIRE 336 400 336 384
WIRE 160 480 160 464
WIRE 96 496 96 384
WIRE 128 496 96 496
WIRE 336 512 336 480
WIRE 336 512 192 512
WIRE 352 512 336 512
WIRE 448 512 448 352
WIRE 448 512 432 512
WIRE 464 512 448 512
WIRE 576 512 544 512
WIRE -160 528 -160 384
WIRE 128 528 -160 528
WIRE 576 544 576 512
WIRE -160 560 -160 528
WIRE 160 560 160 544
FLAG 48 -80 0
FLAG -96 -80 0
FLAG -112 -192 +15
FLAG 32 -192 -15
FLAG 160 208 +15
FLAG 160 464 +15
FLAG 160 112 -15
FLAG 160 560 -15
FLAG 528 384 -15
FLAG 528 288 +15
FLAG 576 544 0
FLAG -160 560 0
SYMBOL Opamps\\opamp2 160 224 M180
SYMATTR InstName U1
SYMATTR Value UA741
SYMBOL Opamps\\opamp2 160 448 R0
SYMATTR InstName U2
SYMATTR Value UA741
SYMBOL Opamps\\opamp2 528 272 R0
SYMATTR InstName U3
SYMATTR Value UA741
SYMBOL voltage -96 -192 R0
WINDOW 123 0 0 Left 0
WINDOW 39 0 0 Left 0
SYMATTR InstName V1
SYMATTR Value 15
SYMBOL voltage 48 -192 R0
WINDOW 123 0 0 Left 0
WINDOW 39 0 0 Left 0
SYMATTR InstName V2
SYMATTR Value -15
SYMBOL res 448 496 R90
WINDOW 0 0 56 VBottom 2
WINDOW 3 32 56 VTop 2
SYMATTR InstName R1
SYMATTR Value {R1}
SYMBOL res 560 496 R90
WINDOW 0 0 56 VBottom 2
WINDOW 3 32 56 VTop 2
SYMATTR InstName R2
SYMATTR Value {R2}
SYMBOL res 448 144 R90
WINDOW 0 0 56 VBottom 2
WINDOW 3 32 56 VTop 2
SYMATTR InstName R3
SYMATTR Value {R11}
SYMBOL res 576 144 R90
WINDOW 0 0 56 VBottom 2
WINDOW 3 32 56 VTop 2
SYMATTR InstName R4
SYMATTR Value {R21}
SYMBOL res 352 496 R180
WINDOW 0 36 76 Left 2
WINDOW 3 36 40 Left 2
SYMATTR InstName R5
SYMATTR Value {R3}
SYMBOL res 352 384 R180
WINDOW 0 36 76 Left 2
WINDOW 3 36 40 Left 2
SYMATTR InstName R6
SYMATTR Value {RG}
SYMBOL res 352 272 R180
WINDOW 0 36 76 Left 2
WINDOW 3 36 40 Left 2
SYMATTR InstName R7
SYMATTR Value {R31}
SYMBOL voltage -160 288 R0
WINDOW 3 24 152 Left 2
WINDOW 123 24 124 Left 2
WINDOW 39 0 0 Left 0
SYMATTR Value SINE(0 50m 1k)
SYMATTR Value2 AC 1 0
SYMATTR InstName V3
TEXT -152 -240 Left 2 !.inc "C:\\Program Files\\LTC\\LTspiceXVII\\lib\\sub\\UA741.sub"
TEXT -152 -40 Left 2 !.param R1={mc(1k, 0.1)}  R11={mc(1k, 0.1)} R2={mc(10k, 0.1)}  R21={mc(10k, 0.1)} R3={mc(4k7, 0.1)}  R31={mc(4k7, 0.1)} RG={mc(1k, 0.1)}
TEXT -152 0 Left 2 !.tran 0.01
TEXT -152 32 Left 2 !.step param run 1 100 1
