Version 4
SHEET 1 880 680
WIRE 432 -64 288 -64
WIRE 352 -48 240 -48
WIRE 352 -32 352 -48
WIRE 288 -16 288 -64
WIRE 320 -16 288 -16
WIRE 432 0 432 -64
WIRE 432 0 384 0
WIRE 320 16 288 16
WIRE 352 32 240 32
WIRE 144 64 64 64
WIRE 288 64 288 16
WIRE 288 64 224 64
WIRE 432 96 432 0
WIRE 64 112 64 64
WIRE 288 112 288 64
WIRE 64 224 64 192
WIRE 288 224 288 176
WIRE 288 224 64 224
WIRE 432 224 432 176
WIRE 432 224 288 224
WIRE 64 240 64 224
FLAG 64 240 0
SYMBOL cap 272 112 R0
SYMATTR InstName C1
SYMATTR Value 220n
SYMBOL res 240 48 R90
WINDOW 0 0 56 VBottom 2
WINDOW 3 32 56 VTop 2
SYMATTR InstName R1
SYMATTR Value 3.617k
SYMBOL voltage 64 96 R0
WINDOW 3 -200 57 Left 2
WINDOW 123 -175 87 Left 2
WINDOW 39 0 0 Left 0
SYMATTR InstName V1
SYMATTR Value SINE(0 10 1)
SYMATTR Value2 AC 10 0
SYMBOL res 416 80 R0
SYMATTR InstName R2
SYMATTR Value 10k
SYMBOL Opamps\\OP747 352 -64 R0
SYMATTR InstName U1
SYMBOL voltage 240 -64 R0
WINDOW 123 0 0 Left 0
WINDOW 39 0 0 Left 0
SYMATTR InstName V2
SYMATTR Value 10
TEXT -138 264 Left 2 !.ac lin 1000 2 20000
